[root]
type=Root
children=system
eventq_index=0
full_system=false
sim_quantum=0
time_sync_enable=false
time_sync_period=100000000000
time_sync_spin_threshold=100000000

[system]
type=System
children=clk_domain cpu0 cpu1 cpu2 cpu3 cpu4 cpu5 cpu6 cpu7 cpu_clk_domain cpu_voltage_domain dvfs_handler mem_ctrls membus voltage_domain
boot_osflags=a
cache_line_size=64
clk_domain=system.clk_domain
default_p_state=UNDEFINED
eventq_index=0
exit_on_work_items=false
init_param=0
kernel=
kernel_addr_check=true
kernel_extras=
kvm_vm=Null
load_addr_mask=18446744073709551615
load_offset=0
mem_mode=atomic
mem_ranges=0:2147483647:0:0:0:0
memories=system.mem_ctrls
mmap_using_noreserve=false
multi_thread=false
num_work_ids=16
p_state_clk_gate_bins=20
p_state_clk_gate_max=1000000000000
p_state_clk_gate_min=1000
power_model=
readfile=
symbolfile=
thermal_components=
thermal_model=Null
work_begin_ckpt_count=0
work_begin_cpu_id_exit=-1
work_begin_exit_count=0
work_cpus_ckpt_count=0
work_end_ckpt_count=0
work_end_exit_count=0
work_item_id=-1
system_port=system.membus.slave[0]

[system.clk_domain]
type=SrcClockDomain
clock=1000
domain_id=-1
eventq_index=0
init_perf_level=0
voltage_domain=system.voltage_domain

[system.cpu0]
type=AtomicSimpleCPU
children=apic_clk_domain dtb interrupts isa itb tracer workload
branchPred=Null
checker=Null
clk_domain=system.cpu_clk_domain
cpu_id=0
default_p_state=UNDEFINED
do_checkpoint_insts=true
do_quiesce=true
do_statistics_insts=true
dtb=system.cpu0.dtb
eventq_index=0
function_trace=false
function_trace_start=0
interrupts=system.cpu0.interrupts
isa=system.cpu0.isa
itb=system.cpu0.itb
max_insts_all_threads=0
max_insts_any_thread=0
max_loads_all_threads=0
max_loads_any_thread=0
numThreads=1
p_state_clk_gate_bins=20
p_state_clk_gate_max=1000000000000
p_state_clk_gate_min=1000
power_gating_on_idle=false
power_model=
profile=0
progress_interval=0
pwr_gating_latency=300
simpoint_start_insts=
simulate_data_stalls=false
simulate_inst_stalls=false
socket_id=0
switched_out=false
syscallRetryLatency=10000
system=system
tracer=system.cpu0.tracer
wait_for_remote_gdb=false
width=1
workload=system.cpu0.workload
dcache_port=system.membus.slave[2]
icache_port=system.membus.slave[1]

[system.cpu0.apic_clk_domain]
type=DerivedClockDomain
clk_divider=16
clk_domain=system.cpu_clk_domain
eventq_index=0

[system.cpu0.dtb]
type=X86TLB
children=walker
clk_domain=system.cpu_clk_domain
default_p_state=UNDEFINED
eventq_index=0
p_state_clk_gate_bins=20
p_state_clk_gate_max=1000000000000
p_state_clk_gate_min=1000
power_model=
size=64
walker=system.cpu0.dtb.walker

[system.cpu0.dtb.walker]
type=X86PagetableWalker
clk_domain=system.cpu_clk_domain
default_p_state=UNDEFINED
eventq_index=0
num_squash_per_cycle=4
p_state_clk_gate_bins=20
p_state_clk_gate_max=1000000000000
p_state_clk_gate_min=1000
power_model=
system=system
port=system.membus.slave[4]

[system.cpu0.interrupts]
type=X86LocalApic
clk_domain=system.cpu0.apic_clk_domain
default_p_state=UNDEFINED
eventq_index=0
int_latency=1000
p_state_clk_gate_bins=20
p_state_clk_gate_max=1000000000000
p_state_clk_gate_min=1000
pio_addr=2305843009213693952
pio_latency=100000
power_model=
system=system
int_master=system.membus.slave[5]
int_slave=system.membus.master[1]
pio=system.membus.master[0]

[system.cpu0.isa]
type=X86ISA
eventq_index=0

[system.cpu0.itb]
type=X86TLB
children=walker
clk_domain=system.cpu_clk_domain
default_p_state=UNDEFINED
eventq_index=0
p_state_clk_gate_bins=20
p_state_clk_gate_max=1000000000000
p_state_clk_gate_min=1000
power_model=
size=64
walker=system.cpu0.itb.walker

[system.cpu0.itb.walker]
type=X86PagetableWalker
clk_domain=system.cpu_clk_domain
default_p_state=UNDEFINED
eventq_index=0
num_squash_per_cycle=4
p_state_clk_gate_bins=20
p_state_clk_gate_max=1000000000000
p_state_clk_gate_min=1000
power_model=
system=system
port=system.membus.slave[3]

[system.cpu0.tracer]
type=ExeTracer
eventq_index=0

[system.cpu0.workload]
type=Process
cmd=example/simple
cwd=/home/zhouyuchen/work_space/gem5-multithread
drivers=
egid=100
env=
errout=cerr
euid=100
eventq_index=0
executable=example/simple
gid=100
input=cin
kvmInSE=false
maxStackSize=67108864
output=cout
pgid=100
pid=100
ppid=0
simpoint=0
system=system
uid=100
useArchPT=false

[system.cpu1]
type=AtomicSimpleCPU
children=apic_clk_domain dtb interrupts isa itb tracer workload
branchPred=Null
checker=Null
clk_domain=system.cpu_clk_domain
cpu_id=1
default_p_state=UNDEFINED
do_checkpoint_insts=true
do_quiesce=true
do_statistics_insts=true
dtb=system.cpu1.dtb
eventq_index=1
function_trace=false
function_trace_start=0
interrupts=system.cpu1.interrupts
isa=system.cpu1.isa
itb=system.cpu1.itb
max_insts_all_threads=0
max_insts_any_thread=0
max_loads_all_threads=0
max_loads_any_thread=0
numThreads=1
p_state_clk_gate_bins=20
p_state_clk_gate_max=1000000000000
p_state_clk_gate_min=1000
power_gating_on_idle=false
power_model=
profile=0
progress_interval=0
pwr_gating_latency=300
simpoint_start_insts=
simulate_data_stalls=false
simulate_inst_stalls=false
socket_id=0
switched_out=false
syscallRetryLatency=10000
system=system
tracer=system.cpu1.tracer
wait_for_remote_gdb=false
width=1
workload=system.cpu1.workload
dcache_port=system.membus.slave[7]
icache_port=system.membus.slave[6]

[system.cpu1.apic_clk_domain]
type=DerivedClockDomain
clk_divider=16
clk_domain=system.cpu_clk_domain
eventq_index=1

[system.cpu1.dtb]
type=X86TLB
children=walker
clk_domain=system.cpu_clk_domain
default_p_state=UNDEFINED
eventq_index=1
p_state_clk_gate_bins=20
p_state_clk_gate_max=1000000000000
p_state_clk_gate_min=1000
power_model=
size=64
walker=system.cpu1.dtb.walker

[system.cpu1.dtb.walker]
type=X86PagetableWalker
clk_domain=system.cpu_clk_domain
default_p_state=UNDEFINED
eventq_index=1
num_squash_per_cycle=4
p_state_clk_gate_bins=20
p_state_clk_gate_max=1000000000000
p_state_clk_gate_min=1000
power_model=
system=system
port=system.membus.slave[9]

[system.cpu1.interrupts]
type=X86LocalApic
clk_domain=system.cpu1.apic_clk_domain
default_p_state=UNDEFINED
eventq_index=1
int_latency=1000
p_state_clk_gate_bins=20
p_state_clk_gate_max=1000000000000
p_state_clk_gate_min=1000
pio_addr=2305843009213693952
pio_latency=100000
power_model=
system=system
int_master=system.membus.slave[10]
int_slave=system.membus.master[3]
pio=system.membus.master[2]

[system.cpu1.isa]
type=X86ISA
eventq_index=1

[system.cpu1.itb]
type=X86TLB
children=walker
clk_domain=system.cpu_clk_domain
default_p_state=UNDEFINED
eventq_index=1
p_state_clk_gate_bins=20
p_state_clk_gate_max=1000000000000
p_state_clk_gate_min=1000
power_model=
size=64
walker=system.cpu1.itb.walker

[system.cpu1.itb.walker]
type=X86PagetableWalker
clk_domain=system.cpu_clk_domain
default_p_state=UNDEFINED
eventq_index=1
num_squash_per_cycle=4
p_state_clk_gate_bins=20
p_state_clk_gate_max=1000000000000
p_state_clk_gate_min=1000
power_model=
system=system
port=system.membus.slave[8]

[system.cpu1.tracer]
type=ExeTracer
eventq_index=1

[system.cpu1.workload]
type=Process
cmd=example/simple
cwd=/home/zhouyuchen/work_space/gem5-multithread
drivers=
egid=100
env=
errout=cerr
euid=100
eventq_index=1
executable=example/simple
gid=100
input=cin
kvmInSE=false
maxStackSize=67108864
output=cout
pgid=100
pid=101
ppid=0
simpoint=0
system=system
uid=100
useArchPT=false

[system.cpu2]
type=AtomicSimpleCPU
children=apic_clk_domain dtb interrupts isa itb tracer
branchPred=Null
checker=Null
clk_domain=system.cpu_clk_domain
cpu_id=2
default_p_state=UNDEFINED
do_checkpoint_insts=true
do_quiesce=true
do_statistics_insts=true
dtb=system.cpu2.dtb
eventq_index=2
function_trace=false
function_trace_start=0
interrupts=system.cpu2.interrupts
isa=system.cpu2.isa
itb=system.cpu2.itb
max_insts_all_threads=0
max_insts_any_thread=0
max_loads_all_threads=0
max_loads_any_thread=0
numThreads=1
p_state_clk_gate_bins=20
p_state_clk_gate_max=1000000000000
p_state_clk_gate_min=1000
power_gating_on_idle=false
power_model=
profile=0
progress_interval=0
pwr_gating_latency=300
simpoint_start_insts=
simulate_data_stalls=false
simulate_inst_stalls=false
socket_id=0
switched_out=false
syscallRetryLatency=10000
system=system
tracer=system.cpu2.tracer
wait_for_remote_gdb=false
width=1
workload=system.cpu1.workload
dcache_port=system.membus.slave[12]
icache_port=system.membus.slave[11]

[system.cpu2.apic_clk_domain]
type=DerivedClockDomain
clk_divider=16
clk_domain=system.cpu_clk_domain
eventq_index=2

[system.cpu2.dtb]
type=X86TLB
children=walker
clk_domain=system.cpu_clk_domain
default_p_state=UNDEFINED
eventq_index=2
p_state_clk_gate_bins=20
p_state_clk_gate_max=1000000000000
p_state_clk_gate_min=1000
power_model=
size=64
walker=system.cpu2.dtb.walker

[system.cpu2.dtb.walker]
type=X86PagetableWalker
clk_domain=system.cpu_clk_domain
default_p_state=UNDEFINED
eventq_index=2
num_squash_per_cycle=4
p_state_clk_gate_bins=20
p_state_clk_gate_max=1000000000000
p_state_clk_gate_min=1000
power_model=
system=system
port=system.membus.slave[14]

[system.cpu2.interrupts]
type=X86LocalApic
clk_domain=system.cpu2.apic_clk_domain
default_p_state=UNDEFINED
eventq_index=2
int_latency=1000
p_state_clk_gate_bins=20
p_state_clk_gate_max=1000000000000
p_state_clk_gate_min=1000
pio_addr=2305843009213693952
pio_latency=100000
power_model=
system=system
int_master=system.membus.slave[15]
int_slave=system.membus.master[5]
pio=system.membus.master[4]

[system.cpu2.isa]
type=X86ISA
eventq_index=2

[system.cpu2.itb]
type=X86TLB
children=walker
clk_domain=system.cpu_clk_domain
default_p_state=UNDEFINED
eventq_index=2
p_state_clk_gate_bins=20
p_state_clk_gate_max=1000000000000
p_state_clk_gate_min=1000
power_model=
size=64
walker=system.cpu2.itb.walker

[system.cpu2.itb.walker]
type=X86PagetableWalker
clk_domain=system.cpu_clk_domain
default_p_state=UNDEFINED
eventq_index=2
num_squash_per_cycle=4
p_state_clk_gate_bins=20
p_state_clk_gate_max=1000000000000
p_state_clk_gate_min=1000
power_model=
system=system
port=system.membus.slave[13]

[system.cpu2.tracer]
type=ExeTracer
eventq_index=2

[system.cpu3]
type=AtomicSimpleCPU
children=apic_clk_domain dtb interrupts isa itb tracer
branchPred=Null
checker=Null
clk_domain=system.cpu_clk_domain
cpu_id=3
default_p_state=UNDEFINED
do_checkpoint_insts=true
do_quiesce=true
do_statistics_insts=true
dtb=system.cpu3.dtb
eventq_index=3
function_trace=false
function_trace_start=0
interrupts=system.cpu3.interrupts
isa=system.cpu3.isa
itb=system.cpu3.itb
max_insts_all_threads=0
max_insts_any_thread=0
max_loads_all_threads=0
max_loads_any_thread=0
numThreads=1
p_state_clk_gate_bins=20
p_state_clk_gate_max=1000000000000
p_state_clk_gate_min=1000
power_gating_on_idle=false
power_model=
profile=0
progress_interval=0
pwr_gating_latency=300
simpoint_start_insts=
simulate_data_stalls=false
simulate_inst_stalls=false
socket_id=0
switched_out=false
syscallRetryLatency=10000
system=system
tracer=system.cpu3.tracer
wait_for_remote_gdb=false
width=1
workload=system.cpu1.workload
dcache_port=system.membus.slave[17]
icache_port=system.membus.slave[16]

[system.cpu3.apic_clk_domain]
type=DerivedClockDomain
clk_divider=16
clk_domain=system.cpu_clk_domain
eventq_index=3

[system.cpu3.dtb]
type=X86TLB
children=walker
clk_domain=system.cpu_clk_domain
default_p_state=UNDEFINED
eventq_index=3
p_state_clk_gate_bins=20
p_state_clk_gate_max=1000000000000
p_state_clk_gate_min=1000
power_model=
size=64
walker=system.cpu3.dtb.walker

[system.cpu3.dtb.walker]
type=X86PagetableWalker
clk_domain=system.cpu_clk_domain
default_p_state=UNDEFINED
eventq_index=3
num_squash_per_cycle=4
p_state_clk_gate_bins=20
p_state_clk_gate_max=1000000000000
p_state_clk_gate_min=1000
power_model=
system=system
port=system.membus.slave[19]

[system.cpu3.interrupts]
type=X86LocalApic
clk_domain=system.cpu3.apic_clk_domain
default_p_state=UNDEFINED
eventq_index=3
int_latency=1000
p_state_clk_gate_bins=20
p_state_clk_gate_max=1000000000000
p_state_clk_gate_min=1000
pio_addr=2305843009213693952
pio_latency=100000
power_model=
system=system
int_master=system.membus.slave[20]
int_slave=system.membus.master[7]
pio=system.membus.master[6]

[system.cpu3.isa]
type=X86ISA
eventq_index=3

[system.cpu3.itb]
type=X86TLB
children=walker
clk_domain=system.cpu_clk_domain
default_p_state=UNDEFINED
eventq_index=3
p_state_clk_gate_bins=20
p_state_clk_gate_max=1000000000000
p_state_clk_gate_min=1000
power_model=
size=64
walker=system.cpu3.itb.walker

[system.cpu3.itb.walker]
type=X86PagetableWalker
clk_domain=system.cpu_clk_domain
default_p_state=UNDEFINED
eventq_index=3
num_squash_per_cycle=4
p_state_clk_gate_bins=20
p_state_clk_gate_max=1000000000000
p_state_clk_gate_min=1000
power_model=
system=system
port=system.membus.slave[18]

[system.cpu3.tracer]
type=ExeTracer
eventq_index=3

[system.cpu4]
type=AtomicSimpleCPU
children=apic_clk_domain dtb interrupts isa itb tracer
branchPred=Null
checker=Null
clk_domain=system.cpu_clk_domain
cpu_id=4
default_p_state=UNDEFINED
do_checkpoint_insts=true
do_quiesce=true
do_statistics_insts=true
dtb=system.cpu4.dtb
eventq_index=4
function_trace=false
function_trace_start=0
interrupts=system.cpu4.interrupts
isa=system.cpu4.isa
itb=system.cpu4.itb
max_insts_all_threads=0
max_insts_any_thread=0
max_loads_all_threads=0
max_loads_any_thread=0
numThreads=1
p_state_clk_gate_bins=20
p_state_clk_gate_max=1000000000000
p_state_clk_gate_min=1000
power_gating_on_idle=false
power_model=
profile=0
progress_interval=0
pwr_gating_latency=300
simpoint_start_insts=
simulate_data_stalls=false
simulate_inst_stalls=false
socket_id=0
switched_out=false
syscallRetryLatency=10000
system=system
tracer=system.cpu4.tracer
wait_for_remote_gdb=false
width=1
workload=system.cpu1.workload
dcache_port=system.membus.slave[22]
icache_port=system.membus.slave[21]

[system.cpu4.apic_clk_domain]
type=DerivedClockDomain
clk_divider=16
clk_domain=system.cpu_clk_domain
eventq_index=4

[system.cpu4.dtb]
type=X86TLB
children=walker
clk_domain=system.cpu_clk_domain
default_p_state=UNDEFINED
eventq_index=4
p_state_clk_gate_bins=20
p_state_clk_gate_max=1000000000000
p_state_clk_gate_min=1000
power_model=
size=64
walker=system.cpu4.dtb.walker

[system.cpu4.dtb.walker]
type=X86PagetableWalker
clk_domain=system.cpu_clk_domain
default_p_state=UNDEFINED
eventq_index=4
num_squash_per_cycle=4
p_state_clk_gate_bins=20
p_state_clk_gate_max=1000000000000
p_state_clk_gate_min=1000
power_model=
system=system
port=system.membus.slave[24]

[system.cpu4.interrupts]
type=X86LocalApic
clk_domain=system.cpu4.apic_clk_domain
default_p_state=UNDEFINED
eventq_index=4
int_latency=1000
p_state_clk_gate_bins=20
p_state_clk_gate_max=1000000000000
p_state_clk_gate_min=1000
pio_addr=2305843009213693952
pio_latency=100000
power_model=
system=system
int_master=system.membus.slave[25]
int_slave=system.membus.master[9]
pio=system.membus.master[8]

[system.cpu4.isa]
type=X86ISA
eventq_index=4

[system.cpu4.itb]
type=X86TLB
children=walker
clk_domain=system.cpu_clk_domain
default_p_state=UNDEFINED
eventq_index=4
p_state_clk_gate_bins=20
p_state_clk_gate_max=1000000000000
p_state_clk_gate_min=1000
power_model=
size=64
walker=system.cpu4.itb.walker

[system.cpu4.itb.walker]
type=X86PagetableWalker
clk_domain=system.cpu_clk_domain
default_p_state=UNDEFINED
eventq_index=4
num_squash_per_cycle=4
p_state_clk_gate_bins=20
p_state_clk_gate_max=1000000000000
p_state_clk_gate_min=1000
power_model=
system=system
port=system.membus.slave[23]

[system.cpu4.tracer]
type=ExeTracer
eventq_index=4

[system.cpu5]
type=AtomicSimpleCPU
children=apic_clk_domain dtb interrupts isa itb tracer
branchPred=Null
checker=Null
clk_domain=system.cpu_clk_domain
cpu_id=5
default_p_state=UNDEFINED
do_checkpoint_insts=true
do_quiesce=true
do_statistics_insts=true
dtb=system.cpu5.dtb
eventq_index=5
function_trace=false
function_trace_start=0
interrupts=system.cpu5.interrupts
isa=system.cpu5.isa
itb=system.cpu5.itb
max_insts_all_threads=0
max_insts_any_thread=0
max_loads_all_threads=0
max_loads_any_thread=0
numThreads=1
p_state_clk_gate_bins=20
p_state_clk_gate_max=1000000000000
p_state_clk_gate_min=1000
power_gating_on_idle=false
power_model=
profile=0
progress_interval=0
pwr_gating_latency=300
simpoint_start_insts=
simulate_data_stalls=false
simulate_inst_stalls=false
socket_id=0
switched_out=false
syscallRetryLatency=10000
system=system
tracer=system.cpu5.tracer
wait_for_remote_gdb=false
width=1
workload=system.cpu1.workload
dcache_port=system.membus.slave[27]
icache_port=system.membus.slave[26]

[system.cpu5.apic_clk_domain]
type=DerivedClockDomain
clk_divider=16
clk_domain=system.cpu_clk_domain
eventq_index=5

[system.cpu5.dtb]
type=X86TLB
children=walker
clk_domain=system.cpu_clk_domain
default_p_state=UNDEFINED
eventq_index=5
p_state_clk_gate_bins=20
p_state_clk_gate_max=1000000000000
p_state_clk_gate_min=1000
power_model=
size=64
walker=system.cpu5.dtb.walker

[system.cpu5.dtb.walker]
type=X86PagetableWalker
clk_domain=system.cpu_clk_domain
default_p_state=UNDEFINED
eventq_index=5
num_squash_per_cycle=4
p_state_clk_gate_bins=20
p_state_clk_gate_max=1000000000000
p_state_clk_gate_min=1000
power_model=
system=system
port=system.membus.slave[29]

[system.cpu5.interrupts]
type=X86LocalApic
clk_domain=system.cpu5.apic_clk_domain
default_p_state=UNDEFINED
eventq_index=5
int_latency=1000
p_state_clk_gate_bins=20
p_state_clk_gate_max=1000000000000
p_state_clk_gate_min=1000
pio_addr=2305843009213693952
pio_latency=100000
power_model=
system=system
int_master=system.membus.slave[30]
int_slave=system.membus.master[11]
pio=system.membus.master[10]

[system.cpu5.isa]
type=X86ISA
eventq_index=5

[system.cpu5.itb]
type=X86TLB
children=walker
clk_domain=system.cpu_clk_domain
default_p_state=UNDEFINED
eventq_index=5
p_state_clk_gate_bins=20
p_state_clk_gate_max=1000000000000
p_state_clk_gate_min=1000
power_model=
size=64
walker=system.cpu5.itb.walker

[system.cpu5.itb.walker]
type=X86PagetableWalker
clk_domain=system.cpu_clk_domain
default_p_state=UNDEFINED
eventq_index=5
num_squash_per_cycle=4
p_state_clk_gate_bins=20
p_state_clk_gate_max=1000000000000
p_state_clk_gate_min=1000
power_model=
system=system
port=system.membus.slave[28]

[system.cpu5.tracer]
type=ExeTracer
eventq_index=5

[system.cpu6]
type=AtomicSimpleCPU
children=apic_clk_domain dtb interrupts isa itb tracer
branchPred=Null
checker=Null
clk_domain=system.cpu_clk_domain
cpu_id=6
default_p_state=UNDEFINED
do_checkpoint_insts=true
do_quiesce=true
do_statistics_insts=true
dtb=system.cpu6.dtb
eventq_index=6
function_trace=false
function_trace_start=0
interrupts=system.cpu6.interrupts
isa=system.cpu6.isa
itb=system.cpu6.itb
max_insts_all_threads=0
max_insts_any_thread=0
max_loads_all_threads=0
max_loads_any_thread=0
numThreads=1
p_state_clk_gate_bins=20
p_state_clk_gate_max=1000000000000
p_state_clk_gate_min=1000
power_gating_on_idle=false
power_model=
profile=0
progress_interval=0
pwr_gating_latency=300
simpoint_start_insts=
simulate_data_stalls=false
simulate_inst_stalls=false
socket_id=0
switched_out=false
syscallRetryLatency=10000
system=system
tracer=system.cpu6.tracer
wait_for_remote_gdb=false
width=1
workload=system.cpu1.workload
dcache_port=system.membus.slave[32]
icache_port=system.membus.slave[31]

[system.cpu6.apic_clk_domain]
type=DerivedClockDomain
clk_divider=16
clk_domain=system.cpu_clk_domain
eventq_index=6

[system.cpu6.dtb]
type=X86TLB
children=walker
clk_domain=system.cpu_clk_domain
default_p_state=UNDEFINED
eventq_index=6
p_state_clk_gate_bins=20
p_state_clk_gate_max=1000000000000
p_state_clk_gate_min=1000
power_model=
size=64
walker=system.cpu6.dtb.walker

[system.cpu6.dtb.walker]
type=X86PagetableWalker
clk_domain=system.cpu_clk_domain
default_p_state=UNDEFINED
eventq_index=6
num_squash_per_cycle=4
p_state_clk_gate_bins=20
p_state_clk_gate_max=1000000000000
p_state_clk_gate_min=1000
power_model=
system=system
port=system.membus.slave[34]

[system.cpu6.interrupts]
type=X86LocalApic
clk_domain=system.cpu6.apic_clk_domain
default_p_state=UNDEFINED
eventq_index=6
int_latency=1000
p_state_clk_gate_bins=20
p_state_clk_gate_max=1000000000000
p_state_clk_gate_min=1000
pio_addr=2305843009213693952
pio_latency=100000
power_model=
system=system
int_master=system.membus.slave[35]
int_slave=system.membus.master[13]
pio=system.membus.master[12]

[system.cpu6.isa]
type=X86ISA
eventq_index=6

[system.cpu6.itb]
type=X86TLB
children=walker
clk_domain=system.cpu_clk_domain
default_p_state=UNDEFINED
eventq_index=6
p_state_clk_gate_bins=20
p_state_clk_gate_max=1000000000000
p_state_clk_gate_min=1000
power_model=
size=64
walker=system.cpu6.itb.walker

[system.cpu6.itb.walker]
type=X86PagetableWalker
clk_domain=system.cpu_clk_domain
default_p_state=UNDEFINED
eventq_index=6
num_squash_per_cycle=4
p_state_clk_gate_bins=20
p_state_clk_gate_max=1000000000000
p_state_clk_gate_min=1000
power_model=
system=system
port=system.membus.slave[33]

[system.cpu6.tracer]
type=ExeTracer
eventq_index=6

[system.cpu7]
type=AtomicSimpleCPU
children=apic_clk_domain dtb interrupts isa itb tracer
branchPred=Null
checker=Null
clk_domain=system.cpu_clk_domain
cpu_id=7
default_p_state=UNDEFINED
do_checkpoint_insts=true
do_quiesce=true
do_statistics_insts=true
dtb=system.cpu7.dtb
eventq_index=7
function_trace=false
function_trace_start=0
interrupts=system.cpu7.interrupts
isa=system.cpu7.isa
itb=system.cpu7.itb
max_insts_all_threads=0
max_insts_any_thread=0
max_loads_all_threads=0
max_loads_any_thread=0
numThreads=1
p_state_clk_gate_bins=20
p_state_clk_gate_max=1000000000000
p_state_clk_gate_min=1000
power_gating_on_idle=false
power_model=
profile=0
progress_interval=0
pwr_gating_latency=300
simpoint_start_insts=
simulate_data_stalls=false
simulate_inst_stalls=false
socket_id=0
switched_out=false
syscallRetryLatency=10000
system=system
tracer=system.cpu7.tracer
wait_for_remote_gdb=false
width=1
workload=system.cpu1.workload
dcache_port=system.membus.slave[37]
icache_port=system.membus.slave[36]

[system.cpu7.apic_clk_domain]
type=DerivedClockDomain
clk_divider=16
clk_domain=system.cpu_clk_domain
eventq_index=7

[system.cpu7.dtb]
type=X86TLB
children=walker
clk_domain=system.cpu_clk_domain
default_p_state=UNDEFINED
eventq_index=7
p_state_clk_gate_bins=20
p_state_clk_gate_max=1000000000000
p_state_clk_gate_min=1000
power_model=
size=64
walker=system.cpu7.dtb.walker

[system.cpu7.dtb.walker]
type=X86PagetableWalker
clk_domain=system.cpu_clk_domain
default_p_state=UNDEFINED
eventq_index=7
num_squash_per_cycle=4
p_state_clk_gate_bins=20
p_state_clk_gate_max=1000000000000
p_state_clk_gate_min=1000
power_model=
system=system
port=system.membus.slave[39]

[system.cpu7.interrupts]
type=X86LocalApic
clk_domain=system.cpu7.apic_clk_domain
default_p_state=UNDEFINED
eventq_index=7
int_latency=1000
p_state_clk_gate_bins=20
p_state_clk_gate_max=1000000000000
p_state_clk_gate_min=1000
pio_addr=2305843009213693952
pio_latency=100000
power_model=
system=system
int_master=system.membus.slave[40]
int_slave=system.membus.master[15]
pio=system.membus.master[14]

[system.cpu7.isa]
type=X86ISA
eventq_index=7

[system.cpu7.itb]
type=X86TLB
children=walker
clk_domain=system.cpu_clk_domain
default_p_state=UNDEFINED
eventq_index=7
p_state_clk_gate_bins=20
p_state_clk_gate_max=1000000000000
p_state_clk_gate_min=1000
power_model=
size=64
walker=system.cpu7.itb.walker

[system.cpu7.itb.walker]
type=X86PagetableWalker
clk_domain=system.cpu_clk_domain
default_p_state=UNDEFINED
eventq_index=7
num_squash_per_cycle=4
p_state_clk_gate_bins=20
p_state_clk_gate_max=1000000000000
p_state_clk_gate_min=1000
power_model=
system=system
port=system.membus.slave[38]

[system.cpu7.tracer]
type=ExeTracer
eventq_index=7

[system.cpu_clk_domain]
type=SrcClockDomain
clock=500
domain_id=-1
eventq_index=0
init_perf_level=0
voltage_domain=system.cpu_voltage_domain

[system.cpu_voltage_domain]
type=VoltageDomain
eventq_index=0
voltage=1.0

[system.dvfs_handler]
type=DVFSHandler
domains=
enable=false
eventq_index=0
sys_clk_domain=system.clk_domain
transition_latency=100000000

[system.mem_ctrls]
type=SimpleMemory
bandwidth=73.000000
clk_domain=system.clk_domain
conf_table_reported=true
default_p_state=UNDEFINED
eventq_index=0
in_addr_map=true
kvm_map=true
latency=30000
latency_var=0
null=false
p_state_clk_gate_bins=20
p_state_clk_gate_max=1000000000000
p_state_clk_gate_min=1000
power_model=
range=0:2147483647:6:19:0:0
port=system.membus.master[16]

[system.membus]
type=CoherentXBar
children=snoop_filter
clk_domain=system.clk_domain
default_p_state=UNDEFINED
eventq_index=0
forward_latency=4
frontend_latency=3
p_state_clk_gate_bins=20
p_state_clk_gate_max=1000000000000
p_state_clk_gate_min=1000
point_of_coherency=true
point_of_unification=true
power_model=
response_latency=2
snoop_filter=system.membus.snoop_filter
snoop_response_latency=4
system=system
use_default_range=false
width=16
master=system.cpu0.interrupts.pio system.cpu0.interrupts.int_slave system.cpu1.interrupts.pio system.cpu1.interrupts.int_slave system.cpu2.interrupts.pio system.cpu2.interrupts.int_slave system.cpu3.interrupts.pio system.cpu3.interrupts.int_slave system.cpu4.interrupts.pio system.cpu4.interrupts.int_slave system.cpu5.interrupts.pio system.cpu5.interrupts.int_slave system.cpu6.interrupts.pio system.cpu6.interrupts.int_slave system.cpu7.interrupts.pio system.cpu7.interrupts.int_slave system.mem_ctrls.port
slave=system.system_port system.cpu0.icache_port system.cpu0.dcache_port system.cpu0.itb.walker.port system.cpu0.dtb.walker.port system.cpu0.interrupts.int_master system.cpu1.icache_port system.cpu1.dcache_port system.cpu1.itb.walker.port system.cpu1.dtb.walker.port system.cpu1.interrupts.int_master system.cpu2.icache_port system.cpu2.dcache_port system.cpu2.itb.walker.port system.cpu2.dtb.walker.port system.cpu2.interrupts.int_master system.cpu3.icache_port system.cpu3.dcache_port system.cpu3.itb.walker.port system.cpu3.dtb.walker.port system.cpu3.interrupts.int_master system.cpu4.icache_port system.cpu4.dcache_port system.cpu4.itb.walker.port system.cpu4.dtb.walker.port system.cpu4.interrupts.int_master system.cpu5.icache_port system.cpu5.dcache_port system.cpu5.itb.walker.port system.cpu5.dtb.walker.port system.cpu5.interrupts.int_master system.cpu6.icache_port system.cpu6.dcache_port system.cpu6.itb.walker.port system.cpu6.dtb.walker.port system.cpu6.interrupts.int_master system.cpu7.icache_port system.cpu7.dcache_port system.cpu7.itb.walker.port system.cpu7.dtb.walker.port system.cpu7.interrupts.int_master

[system.membus.snoop_filter]
type=SnoopFilter
eventq_index=0
lookup_latency=1
max_capacity=8388608
system=system

[system.voltage_domain]
type=VoltageDomain
eventq_index=0
voltage=1.0

